#

@<TRIPOS>MOLECULE
UNL1
 66  68  0 0 0
SMALL
GASTEIGER

@<TRIPOS>ATOM
      1 C           2.2220   -1.7390    1.1510 C.3       1 UNL1        0.0000
      2 C1          2.8000   -2.6400    0.0530 C.3       1 UNL1        0.0000
      3 C2          1.8030   -3.7530   -0.2710 C.3       1 UNL1        0.0000
      4 C3          0.4230   -3.1920   -0.6050 C.3       1 UNL1        0.0000
      5 C4         -0.0430   -2.2070    0.4880 C.3       1 UNL1        0.0000
      6 C5          3.1510   -0.5540    1.4640 C.3       1 UNL1        0.0000
      7 C6          4.1670    1.3770    0.5310 C.3       1 UNL1        0.0000
      8 C7          4.4790    2.1300   -0.7900 C.3       1 UNL1        0.0000
      9 C8          3.2620    2.9210   -1.3060 C.3       1 UNL1        0.0000
     10 C9          2.6610    3.7700   -0.1720 C.3       1 UNL1        0.0000
     11 C10         2.3940    2.8810    1.0420 C.3       1 UNL1        0.0000
     12 C11        -1.8220   -0.7320    1.0050 C.3       1 UNL1        0.0000
     13 C12        -3.0540   -0.1300    0.4070 C.3       1 UNL1        0.0000
     14 C13        -4.2880   -0.2730    0.9180 C.3       1 UNL1        0.0000
     15 C14        -5.5080    0.3230    0.3530 C.3       1 UNL1        0.0000
     16 C15        -5.6690    0.5660   -1.0170 C.3       1 UNL1        0.0000
     17 C16        -6.5770    0.6100    1.2140 C.3       1 UNL1        0.0000
     18 C17        -6.8590    1.1070   -1.5110 C.3       1 UNL1        0.0000
     19 C18        -7.7680    1.1500    0.7210 C.3       1 UNL1        0.0000
     20 C19        -7.9080    1.4010   -0.6420 C.3       1 UNL1        0.0000
     21 O           0.9460   -1.2180    0.7660 O.3       1 UNL1        0.0000
     22 O1          3.3440    0.2420    0.2920 O.3       1 UNL1        0.0000
     23 O2          3.6080    2.2770    1.5000 O.3       1 UNL1        0.0000
     24 O3          4.0420   -3.2430    0.4470 O.3       1 UNL1        0.0000
     25 O4          2.2780   -4.5440   -1.3730 O.3       1 UNL1        0.0000
     26 O5         -1.2320   -1.5640    0.0160 O.3       1 UNL1        0.0000
     27 O6         -0.4820   -4.3050   -0.7250 O.3       1 UNL1        0.0000
     28 O7          5.5800    3.0360   -0.5920 O.3       1 UNL1        0.0000
     29 O8          2.2680    2.0350   -1.8350 O.3       1 UNL1        0.0000
     30 O9          1.4880    4.4560   -0.6090 O.3       1 UNL1        0.0000
     31 H01        -3.8470   -0.6210    0.9710 H         1 UNL1        0.0000
     32 H02        -3.7800    0.0720    0.0180 H         1 UNL1        0.0000
     33 H03        -4.6180    0.8290   -0.0210 H         1 UNL1        0.0000
     34 H04        -5.3740    0.9250   -0.0310 H         1 UNL1        0.0000
     35 H05        -6.0090    0.2090    0.3740 H         1 UNL1        0.0000
     36 H06        -6.7690    2.0320   -0.9420 H         1 UNL1        0.0000
     37 H07        -7.3350    2.1480    0.6590 H         1 UNL1        0.0000
     38 H08        -8.2040    2.4470   -0.7180 H         1 UNL1        0.0000
     39 H           2.0990   -2.3110    2.0800 H         1 UNL1        0.0000
     40 H1          3.0000   -2.0690   -0.8610 H         1 UNL1        0.0000
     41 H2          1.7300   -4.4510    0.5730 H         1 UNL1        0.0000
     42 H3          0.4390   -2.6930   -1.5810 H         1 UNL1        0.0000
     43 H4         -0.2840   -2.7580    1.4070 H         1 UNL1        0.0000
     44 H5          4.1200   -0.9140    1.8270 H         1 UNL1        0.0000
     45 H6          2.6840    0.0600    2.2420 H         1 UNL1        0.0000
     46 H7          5.1200    1.0300    0.9500 H         1 UNL1        0.0000
     47 H8          4.7850    1.4030   -1.5510 H         1 UNL1        0.0000
     48 H9          3.5540    3.5920   -2.1220 H         1 UNL1        0.0000
     49 H10         3.3930    4.5370    0.1100 H         1 UNL1        0.0000
     50 H11         1.6320    2.1200    0.8370 H         1 UNL1        0.0000
     51 H12         2.0000    3.4900    1.8630 H         1 UNL1        0.0000
     52 H13         3.8870   -3.7920    1.2370 H         1 UNL1        0.0000
     53 H14         3.2500   -4.5910   -1.2790 H         1 UNL1        0.0000
     54 H15        -0.0870   -4.8780   -1.4110 H         1 UNL1        0.0000
     55 H16         5.4840    3.4220    0.2990 H         1 UNL1        0.0000
     56 H17         2.6240    1.6410   -2.6480 H         1 UNL1        0.0000
     57 H18        -2.0570   -1.3210    1.8980 H         1 UNL1        0.0000
     58 H19        -1.1350    0.0760    1.2820 H         1 UNL1        0.0000
     59 H20         1.0320    4.8110    0.1720 H         1 UNL1        0.0000
     60 H21        -2.8850    0.4640   -0.4880 H         1 UNL1        0.0000
     61 H22        -4.4270   -0.8580    1.8240 H         1 UNL1        0.0000
     62 H23        -4.8750    0.3250   -1.7200 H         1 UNL1        0.0000
     63 H24        -6.4900    0.4200    2.2810 H         1 UNL1        0.0000
     64 H25        -6.9670    1.2930   -2.5770 H         1 UNL1        0.0000
     65 H26        -8.5860    1.3710    1.4010 H         1 UNL1        0.0000
     66 H27        -8.8330    1.8200   -1.0270 H         1 UNL1        0.0000
@<TRIPOS>BOND
     1    1    2 1  
     2    1    6 1  
     3    1   21 1  
     4    1   39 1  
     5    2    3 1  
     6    2   24 1  
     7    2   40 1  
     8    3    4 1  
     9    3   25 1  
    10    3   41 1  
    11    4    5 1  
    12    4   27 1  
    13    4   42 1  
    14    5   21 1  
    15    5   26 1  
    16    5   43 1  
    17    6   22 1  
    18    6   44 1  
    19    6   45 1  
    20    7    8 1  
    21    7   22 1  
    22    7   23 1  
    23    7   46 1  
    24    8    9 1  
    25    8   28 1  
    26    8   47 1  
    27    9   10 1  
    28    9   29 1  
    29    9   48 1  
    30   10   11 1  
    31   10   30 1  
    32   10   49 1  
    33   11   23 1  
    34   11   50 1  
    35   11   51 1  
    36   12   13 1  
    37   12   26 1  
    38   12   57 1  
    39   12   58 1  
    40   13   14 1  
    41   13   31 1  
    42   13   60 1  
    43   14   15 1  
    44   14   32 1  
    45   14   61 1  
    46   15   16 1  
    47   15   17 1  
    48   15   33 1  
    49   16   18 1  
    50   16   34 1  
    51   16   62 1  
    52   17   19 1  
    53   17   35 1  
    54   17   63 1  
    55   18   20 1  
    56   18   36 1  
    57   18   64 1  
    58   19   20 1  
    59   19   37 1  
    60   19   65 1  
    61   20   38 1  
    62   20   66 1  
    63   24   52 1  
    64   25   53 1  
    65   27   54 1  
    66   28   55 1  
    67   29   56 1  
    68   30   59 1  
